OpenDSS/Feeder_7773/Lines.dss
New Line.oh_14183998 Units=km Length=0.21530000999999999 bus1=411707_187_161377_473.3 bus2=31314202505.3 switch=n enabled=y phases=1 Linecode=K_65_13.8KV_1

New Fuse.Fuse_oh_14183998 monitoredobj=Line.oh_14183998 enabled=y ratedcurrent=10000.0

New Line.oh_4695315 Units=km Length=0.032746828 bus1=31214102015.1.2.3 bus2=411307_518_162629_345.1.2.3 switch=n enabled=y phases=3 Linecode=K_100_13.8KV_3

New Fuse.Fuse_oh_4695315 monitoredobj=Line.oh_4695315 enabled=y ratedcurrent=10000.0

New Line.oh_4695322-2 Units=km Length=0.147936468 bus1=411346_96_162618_855.1.2.3 bus2=411387_712_162599_597.1.2.3 switch=n enabled=y phases=3 Linecode=3P_OH_Code0

New Line.oh_4695280-4 Units=km Length=0.113492792 bus1=411204_782_162703_244.1.2.3 bus2=31214102517.1.2.3 switch=n enabled=y phases=3 Linecode=3P_OH_Code0

New Line.oh_14219485 Units=km Length=0.017290804000000003 bus1=31214402000.1.2.3 bus2=31214402001.1.2.3 switch=n enabled=y phases=3 Linecode=K_50_13.8KV_3

New Fuse.Fuse_oh_14219485 monitoredobj=Line.oh_14219485 enabled=y ratedcurrent=10000.0

New Line.oh_14184156-1 Units=km Length=0.19995622000000002 bus1=411743_927_161328_127.1.2.3 bus2=31314202001.1.2.3 switch=n enabled=y phases=3 Linecode=3P_OH_Code1

New Line.oh_4695061-4 Units=km Length=0.177457371 bus1=31214102504.1.2.3 bus2=410715_536_162992_755.1.2.3 switch=n enabled=y phases=3 Linecode=3P_OH_Code0

New Line.oh_14184064-5 Units=km Length=0.27689397200000004 bus1=411269_802_161612_74.1 bus2=411232_609_161679_961.1 switch=n enabled=y phases=1 Linecode=1P_OH_Code2

New Line.oh_9645684 Units=km Length=0.124516576 bus1=412378_506_161815_224.1.2.3 bus2=412355_702_161854_709.1.2.3 switch=n enabled=y phases=3 Linecode=3P_OH_Code3

New Line.oh_14184058-1 Units=km Length=0.124743209 bus1=411362_402_161682_145.1 bus2=31314102505.1 switch=n enabled=y phases=1 Linecode=1P_OH_Code2

New Line.oh_14184092 Units=km Length=0.23641736000000002 bus1=31314202509.1.2.3 bus2=411661_414_161747_302.1.2.3 switch=n enabled=y phases=3 Linecode=3P_OH_Code3

New Line.oh_14183978 Units=km Length=0.31274033500000004 bus1=31314102503.1 bus2=411362_402_161682_145.1 switch=n enabled=y phases=1 Linecode=1P_OH_Code2

New Line.oh_9646983-1 Units=km Length=0.120057369 bus1=31213302014.1.2.3 bus2=412743_527_162066_584.1.2.3 switch=n enabled=y phases=3 Linecode=3P_OH_Code0

New Line.oh_4694639 Units=km Length=0.200714987 bus1=31214102504.3 bus2=410639_826_162972_892.3 switch=n enabled=y phases=1 Linecode=K_65_13.8KV_1

New Fuse.Fuse_oh_4694639 monitoredobj=Line.oh_4694639 enabled=y ratedcurrent=10000.0

New Line.oh_14184114-2 Units=km Length=0.292038982 bus1=411746_677_161688_48.1.2.3 bus2=411742_031_161613_983.1.2.3 switch=n enabled=y phases=3 Linecode=3P_OH_Code1

New Line.oh_4695456-2 Units=km Length=0.20566482 bus1=410578_653_162878_559.3 bus2=410546_822_162824_564.3 switch=n enabled=y phases=1 Linecode=1P_OH_Code2

New Line.oh_4695468 Units=km Length=0.030187097000000003 bus1=31215202102.1.2.3 bus2=410609_26_163071_653.1.2.3 switch=n enabled=y phases=3 Linecode=3P_OH_Code4

New Line.oh_9589320 Units=km Length=0.149000005 bus1=412286_871_161799_65.1.2.3 bus2=31313102033_9981091.1.2.3 switch=y enabled=y phases=3 Linecode=21898_3

New Line.oh_4694588 Units=km Length=0.0201415 bus1=31214102514.2.3 bus2=410858_904_162915_685.2.3 switch=n enabled=y phases=2 Linecode=K_65_13.8KV_2

New Fuse.Fuse_oh_4694588 monitoredobj=Line.oh_4694588 enabled=y ratedcurrent=10000.0

New Line.oh_14220164 Units=km Length=0.225000007 bus1=31214402003.1.2.3 bus2=411542_829_161887_337.1.2.3 switch=y enabled=y phases=3 Linecode=11825_3

New Line.oh_4695250-1 Units=km Length=0.127165857 bus1=411085_939_162797_327.1.2.3 bus2=31214102101_4854916.1.2.3 switch=n enabled=y phases=3 Linecode=3P_OH_Code0

New Line.oh_14220144-4 Units=km Length=0.18105000300000001 bus1=411410_848_161787_011.1 bus2=31314102503.1 switch=n enabled=y phases=1 Linecode=1P_OH_Code2

New Line.oh_4695280 Units=km Length=0.14213762900000002 bus1=411270_727_162660_376.1.2.3 bus2=31214102015.1.2.3 switch=n enabled=y phases=3 Linecode=3P_OH_Code0

New Line.oh_4694596-4 Units=km Length=0.642068357 bus1=410973_872_162683_381.2 bus2=410857_524_162535_683.2 switch=n enabled=y phases=1 Linecode=1P_OH_Code2

New Line.oh_14220191 Units=km Length=0.258000008 bus1=411661_414_161747_302.1.2.3 bus2=411702_129_161814_858.1.2.3 switch=n enabled=y phases=3 Linecode=3P_OH_Code3

New Line.oh_14184138-1 Units=km Length=0.148598341 bus1=31314202002.1.2.3 bus2=31314202003.1.2.3 switch=n enabled=y phases=3 Linecode=3P_OH_Code1

New Line.oh_4695250-3 Units=km Length=0.125406802 bus1=411014_375_162841_299.1.2.3 bus2=31214102010.1.2.3 switch=n enabled=y phases=3 Linecode=3P_OH_Code0

New Line.oh_4695431 Units=km Length=0.216889639 bus1=31214402503.1.2.3 bus2=411547_282_162449_072.1.2.3 switch=n enabled=y phases=3 Linecode=3P_OH_Code3

New Line.oh_14220918 Units=km Length=0.21530000999999999 bus1=31314202004.3 bus2=411707_187_161377_473.3 switch=n enabled=y phases=1 Linecode=1P_OH_Code2

New Line.oh_5099121 Units=km Length=0.09527 bus1=31214102005.1.2.3 bus2=410812_71_162933_717.1.2.3 switch=n enabled=y phases=3 Linecode=OVR_800_21859_3

New Line.oh_9646414 Units=km Length=0.23994030000000002 bus1=31213302503.1.2.3 bus2=31213302040.1.2.3 switch=n enabled=y phases=3 Linecode=3P_OH_Code0

New Line.oh_9646210 Units=km Length=0.31074631599999997 bus1=412522_382_161986_078.1.2.3 bus2=412609_378_161981_665.1.2.3 switch=n enabled=y phases=3 Linecode=3P_OH_Code0

New Line.oh_14220057-2 Units=km Length=0.605293556 bus1=31214402506.1.2.3 bus2=31214402010.1.2.3 switch=n enabled=y phases=3 Linecode=3P_OH_Code3

New Line.oh_5098914 Units=km Length=0.145546497 bus1=411049_406_162830_469.3 bus2=31214102503.3 switch=y enabled=n phases=1 Linecode=DEFAULT_1

New Line.oh_4695061-3 Units=km Length=0.078572594 bus1=410715_536_162992_755.1.2.3 bus2=31214102505.1.2.3 switch=n enabled=y phases=3 Linecode=3P_OH_Code0

New Line.oh_14219449 Units=km Length=0.296000009 bus1=411702_129_161814_858.1.2.3 bus2=31214402504.1.2.3 switch=n enabled=y phases=3 Linecode=3P_OH_Code3

New Line.oh_4695214-2 Units=km Length=0.110006746 bus1=31214102513.1.2.3 bus2=410882_541_162891_072.1.2.3 switch=n enabled=y phases=3 Linecode=3P_OH_Code0

New Line.oh_4695280-3 Units=km Length=0.144544736 bus1=31214102517.1.2.3 bus2=411270_727_162660_376.1.2.3 switch=n enabled=y phases=3 Linecode=3P_OH_Code0

New Line.oh_14220144-2 Units=km Length=0.20031790000000002 bus1=411458_156_161900_536.1 bus2=411433_767_161843_772.1 switch=n enabled=y phases=1 Linecode=1P_OH_Code2

New Line.oh_9646962 Units=km Length=0.149990011 bus1=412743_527_162066_584.1.2.3 bus2=TIEPOINT_31213302510.1.2.3 switch=y enabled=n phases=3 Linecode=11825_3

New Line.oh_4695447 Units=km Length=0.11285147300000001 bus1=31215202522.1.2.3 bus2=TIEPOINT_31215202517.1.2.3 switch=y enabled=n phases=3 Linecode=11825_3

New Line.oh_4695061-1 Units=km Length=0.120471319 bus1=31214102001.1.2.3 bus2=410807_604_162937_04.1.2.3 switch=n enabled=y phases=3 Linecode=3P_OH_Code0

New Line.oh_9645593 Units=km Length=0.030019128 bus1=31213302085_9981126.1.2.3 bus2=412378_506_161815_224.1.2.3 switch=y enabled=y phases=3 Linecode=21898_3

New Line.oh_14219499 Units=km Length=0.227000007 bus1=411791_21_161919_676.1.2.3 bus2=411849_001_161958_285.1.2.3 switch=n enabled=y phases=3 Linecode=3P_OH_Code3

New Line.oh_4694668 Units=km Length=0.312774905 bus1=31214102505.3 bus2=410768_869_163065_208.3 switch=n enabled=y phases=1 Linecode=1P_OH_Code2

New Line.oh_4695400 Units=km Length=0.14274399399999999 bus1=31214102015.1.2.3 bus2=411346_96_162618_855.1.2.3 switch=n enabled=y phases=3 Linecode=3P_OH_Code0

New Line.oh_9658296 Units=km Length=0.050000002 bus1=31213302014.1.2.3 bus2=31213302015.1.2.3 switch=n enabled=y phases=3 Linecode=3P_OH_Code0

New Line.oh_4695214-4 Units=km Length=0.08725663 bus1=410812_71_162933_717.1.2.3 bus2=410832_008_162920_866.1.2.3 switch=n enabled=y phases=3 Linecode=3P_OH_Code0

New Line.oh_5099114 Units=km Length=0.09527 bus1=410807_604_162937_04.1.2.3 bus2=31214102005.1.2.3 switch=n enabled=y phases=3 Linecode=3P_OH_Code0

New Line.oh_14184076 Units=km Length=0.23850678300000003 bus1=31314102503.1 bus2=411450_801_161725_235.1 switch=n enabled=y phases=1 Linecode=K_50_13.8KV_1

New Fuse.Fuse_oh_14184076 monitoredobj=Line.oh_14184076 enabled=y ratedcurrent=10000.0

New Line.oh_4694596-3 Units=km Length=0.446866533 bus1=31214302509.2 bus2=410973_872_162683_381.2 switch=n enabled=y phases=1 Linecode=1P_OH_Code2

New Line.oh_4694649-1 Units=km Length=0.318590181 bus1=411151_239_163087_165.3 bus2=411190_312_163152_274.3 switch=n enabled=y phases=1 Linecode=1P_OH_Code2

New Line.oh_9645453 Units=km Length=0.11287806500000001 bus1=31213302040.3 bus2=31213302039.3 switch=n enabled=y phases=1 Linecode=1P_OH_Code2

New Line.oh_14184156-2 Units=km Length=0.093653792 bus1=31314202001.1.2.3 bus2=TIEPOINT_31314202007.1.2.3 switch=n enabled=y phases=3 Linecode=3P_OH_Code1

New Line.oh_14183984-1 Units=km Length=0.260107308 bus1=31314202003.1.2.3 bus2=31314202004.1.2.3 switch=n enabled=y phases=3 Linecode=3P_OH_Code1

New Line.oh_5098908 Units=km Length=0.145546497 bus1=31214102010.3 bus2=31214102503.3 switch=n enabled=y phases=1 Linecode=1P_OH_Code2

New Line.oh_4695242 Units=km Length=0.13040128 bus1=31214102008.1.2.3 bus2=411014_375_162841_299.1.2.3 switch=n enabled=y phases=3 Linecode=3P_OH_Code0

New Line.oh_14183313-2 Units=km Length=0.204885223 bus1=31314202042.3 bus2=411547_161_161408_876.3 switch=n enabled=y phases=1 Linecode=1P_OH_Code2

New Line.oh_4694596-1 Units=km Length=0.207087372 bus1=411171_749_162706_861.2 bus2=411130_661_162658_956.2 switch=n enabled=y phases=1 Linecode=1P_OH_Code2

New Line.oh_4694649-3 Units=km Length=0.28815118 bus1=411047_703_162935_485.3 bus2=411098_086_163013_155.3 switch=n enabled=y phases=1 Linecode=1P_OH_Code2

New Line.oh_4694593-1 Units=km Length=0.031624742000000004 bus1=PROTDEV_4904635.2 bus2=411171_749_162706_861.2 switch=n enabled=y phases=1 Linecode=1P_OH_Code2

New Line.oh_4695456-1 Units=km Length=0.21074247399999999 bus1=410612_905_162932_89.3 bus2=410578_653_162878_559.3 switch=n enabled=y phases=1 Linecode=1P_OH_Code2

New Line.oh_4695061-5 Units=km Length=0.153533634 bus1=410634_186_163052_259.1.2.3 bus2=31214102504.1.2.3 switch=n enabled=y phases=3 Linecode=3P_OH_Code0

New Line.oh_5099128 Units=km Length=0.09527 bus1=410812_71_162933_717.1.2.3 bus2=31214102005.1.2.3 switch=y enabled=n phases=3 Linecode=21859_3

New Line.oh_14184064-4 Units=km Length=0.08268777799999999 bus1=31314102004.1 bus2=411269_802_161612_74.1 switch=n enabled=y phases=1 Linecode=1P_OH_Code2

New Line.oh_14219463 Units=km Length=0.173509999 bus1=31214402504.1.2.3 bus2=411770_33_161831_057.1.2.3 switch=y enabled=y phases=3 Linecode=21898_3

New Line.oh_4695322-1 Units=km Length=0.157855901 bus1=411387_712_162599_597.1.2.3 bus2=31214302501.1.2.3 switch=n enabled=y phases=3 Linecode=3P_OH_Code0

New Line.oh_4695280-5 Units=km Length=0.068149418 bus1=31214102501.1.2.3 bus2=411204_782_162703_244.1.2.3 switch=n enabled=y phases=3 Linecode=3P_OH_Code0

New Line.oh_14184114-1 Units=km Length=0.123040309 bus1=411750_608_161719_681.1.2.3 bus2=411746_677_161688_48.1.2.3 switch=n enabled=y phases=3 Linecode=3P_OH_Code1

New Line.oh_14184138-2 Units=km Length=0.10390186400000001 bus1=31314202047.1.2.3 bus2=31314202002.1.2.3 switch=n enabled=y phases=3 Linecode=3P_OH_Code1

New Line.oh_4695456-3 Units=km Length=0.20292109600000002 bus1=410546_822_162824_564.3 bus2=410515_508_162771_235.3 switch=n enabled=y phases=1 Linecode=1P_OH_Code2

New Line.oh_4696680 Units=km Length=0.11504799900000001 bus1=31214102007.1.2.3 bus2=31214102008.1.2.3 switch=n enabled=y phases=3 Linecode=3P_OH_Code0

New Line.oh_14220141 Units=km Length=0.256689247 bus1=31214402003.1 bus2=411484_172_161967_848.1 switch=n enabled=y phases=1 Linecode=K_101_13.8KV_1

New Fuse.Fuse_oh_14220141 monitoredobj=Line.oh_14220141 enabled=y ratedcurrent=10000.0

New Line.oh_4673985 Units=km Length=0.200000006 bus1=31114302550.1.2.3 bus2=31114302551.1.2.3 switch=n enabled=y phases=3 Linecode=3P_OH_Code5

New Line.oh_14184064 Units=km Length=0.08337881500000001 bus1=411306_551_161553_622.1 bus2=31314102504.1 switch=n enabled=y phases=1 Linecode=1P_OH_Code2

New Line.oh_14184114-3 Units=km Length=0.164785228 bus1=411742_031_161613_983.1.2.3 bus2=411740_192_161571_906.1.2.3 switch=n enabled=y phases=3 Linecode=3P_OH_Code1

New Line.oh_4695407 Units=km Length=0.39381740400000004 bus1=31214302501.1.2.3 bus2=31214402503.1.2.3 switch=n enabled=y phases=3 Linecode=3P_OH_Code0

New Line.oh_9589327 Units=km Length=0.326446789 bus1=31313102033_9981091.1.2.3 bus2=412383_704_161808_904.1.2.3 switch=n enabled=y phases=3 Linecode=3P_OH_Code3

New Line.oh_4695273 Units=km Length=0.137197317 bus1=31214102101_4854916.1.2.3 bus2=411146_968_162744_681.1.2.3 switch=y enabled=y phases=3 Linecode=11825_3

New Line.oh_4931181 Units=km Length=0.01 bus1=SOURCE_7773-1.1.2.3 bus2=31114303147.1.2.3 switch=y enabled=y phases=3 Linecode=SUB_V_13.0KV_3

New Line.oh_14220057-1 Units=km Length=0.405977962 bus1=31214402010.1.2.3 bus2=411569_014_162016_151.1.2.3 switch=n enabled=y phases=3 Linecode=3P_OH_Code3

New Line.oh_14184058-2 Units=km Length=0.215423314 bus1=31314102505.1 bus2=411313_618_161570_395.1 switch=n enabled=y phases=1 Linecode=1P_OH_Code2

New Line.oh_4696151 Units=km Length=0.007297979 bus1=410609_26_163071_653.1.2.3 bus2=31215202522.1.2.3 switch=n enabled=y phases=3 Linecode=3P_OH_Code0

New Line.oh_9646317 Units=km Length=0.152000005 bus1=412256_81_161835_016.1.2.3 bus2=412286_871_161799_65.1.2.3 switch=n enabled=y phases=3 Linecode=3P_OH_Code3

New Line.oh_14220050 Units=km Length=0.153550008 bus1=31214402504.1.2.3 bus2=411791_21_161919_676.1.2.3 switch=n enabled=y phases=3 Linecode=3P_OH_Code3

New Line.oh_14219492 Units=km Length=0.084144291 bus1=31214402000.1.2.3 bus2=31314202011.1.2.3 switch=n enabled=y phases=3 Linecode=3P_OH_Code1

New Line.oh_14219472 Units=km Length=0.11795 bus1=411770_33_161831_057.1.2.3 bus2=31214402000.1.2.3 switch=n enabled=y phases=3 Linecode=3P_OH_Code1

New Line.oh_4694643 Units=km Length=0.158030356 bus1=410639_826_162972_892.3 bus2=410612_905_162932_89.3 switch=n enabled=y phases=1 Linecode=1P_OH_Code2

New Line.oh_4695214-1 Units=km Length=0.249113351 bus1=410882_541_162891_072.1.2.3 bus2=31214102007.1.2.3 switch=n enabled=y phases=3 Linecode=3P_OH_Code0

New Line.oh_14220106 Units=km Length=0.035588102 bus1=31214402010.2.3 bus2=411569_181_162137_934.2.3 switch=n enabled=y phases=2 Linecode=K_100_13.8KV_2

New Fuse.Fuse_oh_14220106 monitoredobj=Line.oh_14220106 enabled=y ratedcurrent=10000.0

New Line.oh_4695250-2 Units=km Length=0.151006891 bus1=31214102010.1.2.3 bus2=411085_939_162797_327.1.2.3 switch=n enabled=y phases=3 Linecode=3P_OH_Code0

New Line.oh_14220057-3 Units=km Length=0.467542279 bus1=411547_282_162449_072.1.2.3 bus2=31214402506.1.2.3 switch=n enabled=y phases=3 Linecode=3P_OH_Code3

New Line.oh_4695342 Units=km Length=0.227421165 bus1=31214302509.2 bus2=411040_797_162556_919.2 switch=n enabled=y phases=1 Linecode=1P_OH_Code2

New Line.oh_9646324 Units=km Length=0.055221701000000005 bus1=412383_704_161808_904.1.2.3 bus2=31213302085_9981126.1.2.3 switch=n enabled=y phases=3 Linecode=3P_OH_Code3

New Line.oh_4931211 Units=km Length=0.01 bus1=31114303132.1.2.3 bus2=TIEPOINT_31114303153.1.2.3 switch=y enabled=n phases=3 Linecode=SUB_V_13.0KV_3

New Line.oh_4930607 Units=km Length=0.02000004 bus1=31114303132.1.2.3 bus2=4932737.1.2.3 switch=n enabled=y phases=3 Linecode=3P_OH_Code6

New Line.oh_4695214-3 Units=km Length=0.110799577 bus1=410832_008_162920_866.1.2.3 bus2=31214102513.1.2.3 switch=n enabled=y phases=3 Linecode=3P_OH_Code0

New Line.oh_9646421 Units=km Length=1.318000042 bus1=411849_001_161958_285.1.2.3 bus2=412222_092_161863_049.1.2.3 switch=n enabled=y phases=3 Linecode=3P_OH_Code3

New Line.oh_14220134 Units=km Length=0.157090307 bus1=411564_042_161986_504.1.2.3 bus2=31214402003.1.2.3 switch=n enabled=y phases=3 Linecode=3P_OH_Code3

New Line.oh_9645892 Units=km Length=0.379852765 bus1=412306_198_161937_448.1.2.3 bus2=31213302503.1.2.3 switch=n enabled=y phases=3 Linecode=3P_OH_Code3

New Line.oh_14220144-1 Units=km Length=0.234645982 bus1=411484_172_161967_848.1 bus2=411458_156_161900_536.1 switch=n enabled=y phases=1 Linecode=1P_OH_Code2

New Line.oh_9646983 Units=km Length=0.46793264900000003 bus1=412609_378_161981_665.1.2.3 bus2=31213302014.1.2.3 switch=n enabled=y phases=3 Linecode=3P_OH_Code0

New Line.oh_14183984-2 Units=km Length=0.16728281 bus1=31314202004.1.2.3 bus2=411743_924_161329_792.1.2.3 switch=n enabled=y phases=3 Linecode=3P_OH_Code1

New Line.oh_4695061-2 Units=km Length=0.154732295 bus1=31214102505.1.2.3 bus2=31214102001.1.2.3 switch=n enabled=y phases=3 Linecode=3P_OH_Code0

New Line.oh_9646064 Units=km Length=0.509268586 bus1=31213302503.1.2.3 bus2=412522_382_161986_078.1.2.3 switch=n enabled=y phases=3 Linecode=3P_OH_Code4

New Line.oh_4931161 Units=km Length=0.01 bus1=31114303147.1.2.3 bus2=31114303132.1.2.3 switch=n enabled=y phases=3 Linecode=3P_OH_Code6

New Line.oh_9657569 Units=km Length=0.050000002 bus1=31213302015.1.2.3 bus2=31213302022.1.2.3 switch=y enabled=y phases=3 Linecode=11825_3

New Line.oh_4694581 Units=km Length=0.016310627 bus1=31214102513.2.3 bus2=31214102514.2.3 switch=n enabled=y phases=2 Linecode=2P_OH_Code7

New Line.oh_14184107 Units=km Length=0.032686651 bus1=31314202011.1.2.3 bus2=31314202520.1.2.3 switch=n enabled=y phases=3 Linecode=OVR_800_21859_3_8

New Line.oh_4694593-2 Units=km Length=0.027010076 bus1=31214102501.2 bus2=PROTDEV_4904635.2 switch=n enabled=y phases=1 Linecode=K_100_13.8KV_1

New Fuse.Fuse_oh_4694593-2 monitoredobj=Line.oh_4694593-2 enabled=y ratedcurrent=10000.0

New Line.oh_14220144-3 Units=km Length=0.198475663 bus1=411433_767_161843_772.1 bus2=411410_848_161787_011.1 switch=n enabled=y phases=1 Linecode=1P_OH_Code2

New Line.oh_14220806 Units=km Length=0.135807255 bus1=411313_618_161570_395.1 bus2=411306_551_161553_622.1 switch=n enabled=y phases=1 Linecode=1P_OH_Code2

New Line.oh_5098911 Units=km Length=0.145546497 bus1=31214102503.3 bus2=411049_406_162830_469.3 switch=n enabled=y phases=1 Linecode=K_65_13.8KV_1

New Fuse.Fuse_oh_5098911 monitoredobj=Line.oh_5098911 enabled=y ratedcurrent=10000.0

New Line.oh_4695352 Units=km Length=0.36830787299999995 bus1=411049_406_162830_469.3 bus2=411047_703_162935_485.3 switch=n enabled=y phases=1 Linecode=1P_OH_Code2

New Line.oh_9645572 Units=km Length=0.146000005 bus1=412222_092_161863_049.1.2.3 bus2=412256_81_161835_016.1.2.3 switch=n enabled=y phases=3 Linecode=3P_OH_Code3

New Line.oh_14183313-1 Units=km Length=0.21924479700000002 bus1=31314202505.3 bus2=31314202042.3 switch=n enabled=y phases=1 Linecode=1P_OH_Code2

New Line.oh_14220733 Units=km Length=0.157090307 bus1=411569_014_162016_151.1.2.3 bus2=411564_042_161986_504.1.2.3 switch=n enabled=y phases=3 Linecode=3P_OH_Code3

New Line.oh_14183981 Units=km Length=0.106438609 bus1=411232_609_161679_961.1 bus2=411205_161697_018.1 switch=n enabled=y phases=1 Linecode=1P_OH_Code2

New Line.oh_14220171 Units=km Length=0.585000019 bus1=411542_829_161887_337.1.2.3 bus2=31314202510.1.2.3 switch=n enabled=y phases=3 Linecode=3P_OH_Code3

New Line.oh_4694596-2 Units=km Length=0.2184769 bus1=411130_661_162658_956.2 bus2=31214302509.2 switch=n enabled=y phases=1 Linecode=1P_OH_Code2

New Line.oh_4694649-2 Units=km Length=0.283604409 bus1=411098_086_163013_155.3 bus2=411151_239_163087_165.3 switch=n enabled=y phases=1 Linecode=1P_OH_Code2

New Line.oh_4695280-6 Units=km Length=0.16522017600000002 bus1=411146_968_162744_681.1.2.3 bus2=31214102501.1.2.3 switch=n enabled=y phases=3 Linecode=3P_OH_Code0

New Line.oh_9645768 Units=km Length=0.296640055 bus1=412355_702_161854_709.1.2.3 bus2=412306_198_161937_448.1.2.3 switch=n enabled=y phases=3 Linecode=3P_OH_Code3

New Line.oh_4695061-6 Units=km Length=0.103295545 bus1=31215202522.1.2.3 bus2=410634_186_163052_259.1.2.3 switch=n enabled=y phases=3 Linecode=3P_OH_Code0

New Line.oh_14184064-3 Units=km Length=0.224158977 bus1=31314102504.1 bus2=31314102004.1 switch=n enabled=y phases=1 Linecode=1P_OH_Code2

New Line.oh_14184082 Units=km Length=0.503012283 bus1=31314202510.1.2.3 bus2=31314202509.1.2.3 switch=n enabled=y phases=3 Linecode=3P_OH_Code1

New Line.oh_14220826-1 Units=km Length=0.21667501 bus1=31314202520.1.2.3 bus2=411750_608_161719_681.1.2.3 switch=n enabled=y phases=3 Linecode=3P_OH_Code1

New Line.oh_39994345 Units=km Length=0.059636652 bus1=411740_192_161571_906.1.2.3 bus2=31314202047.1.2.3 switch=n enabled=y phases=3 Linecode=3P_OH_Code1

New Line.oh_14183299 Units=km Length=0.039226504 bus1=31314202520.1.2.3 bus2=411750_127_161752_207.1.2.3 switch=n enabled=y phases=3 Linecode=K_50_13.8KV_3

New Fuse.Fuse_oh_14183299 monitoredobj=Line.oh_14183299 enabled=y ratedcurrent=10000.0

New Line.oh_14220866 Units=km Length=0.201422004 bus1=411743_924_161329_792.1.2.3 bus2=411743_927_161328_127.1.2.3 switch=n enabled=y phases=3 Linecode=3P_OH_Code1

New Line.ug_45658121 Units=km Length=0.22706031200000001 bus1=31314202047.2 bus2=411685_91_161555_618.2 switch=n enabled=y phases=1 Linecode=K_40_13.8KV_1

New Fuse.Fuse_ug_45658121 monitoredobj=Line.ug_45658121 enabled=y ratedcurrent=10000.0

New Line.ug_9578542 Units=km Length=0.397616742 bus1=31213302064.1.2.3 bus2=412530_811_162178_145.1.2.3 switch=n enabled=y phases=3 Linecode=3P_UG_Code9

New Line.ug_10200278-1_1 Units=km Length=0.008475666 bus1=31213302048_LEG1.1.2.3 bus2=31213302048_LEG1_sec_0.1.2.3 switch=y enabled=y phases=3 Linecode=12917_3

New Line.ug_9562367_1 Units=km Length=0.26694953600000004 bus1=411840_63_161889_444.2 bus2=411840_63_161889_444_sec_0.2 switch=y enabled=y phases=1 Linecode=SWT_TERMINATOR_1

New Line.ug_14163077 Units=km Length=0.34531549300000003 bus1=31314202001.2 bus2=411656_088_161313_565.2 switch=n enabled=y phases=1 Linecode=K_30_13.8KV_1

New Fuse.Fuse_ug_14163077 monitoredobj=Line.ug_14163077 enabled=y ratedcurrent=10000.0

New Line.ug_4628709-1 Units=km Length=0.708311105 bus1=411307_518_162629_345.3 bus2=411258_485_162453_873.3 switch=y enabled=y phases=1 Linecode=SWT_TERMINATOR_1

New Line.ug_9578296 Units=km Length=0.071260071 bus1=31213302051.1.2.3 bus2=412308_618_162270_936.1.2.3 switch=y enabled=y phases=3 Linecode=SWT_TERMINATOR_3

New Line.ug_14162840_1 Units=km Length=0.410250361 bus1=411204_082_162039_715.2 bus2=411204_082_162039_715_sec_0.2 switch=y enabled=y phases=1 Linecode=SWT_TERMINATOR_1

New Line.ug_9579518 Units=km Length=0.079656791 bus1=412506_218_162037_341.1.2.3 bus2=31213302064.1.2.3 switch=y enabled=y phases=3 Linecode=SWT_TERMINATOR_3

New Line.ug_10199848-1 Units=km Length=0.001719652 bus1=412451_347_162342_986.1.2.3 bus2=PROTDEV_10174392.1.2.3 switch=n enabled=y phases=3 Linecode=3P_UG_Code10

New Line.ug_10200208-1 Units=km Length=0.001649833 bus1=PROTDEV_10174512.1.2.3 bus2=TIEPOINT_10173607.1.2.3 switch=n enabled=y phases=3 Linecode=QG12_125_13.8KV_3

New Fuse.Fuse_ug_10200208-1 monitoredobj=Line.ug_10200208-1 enabled=y ratedcurrent=40000.0

New Line.ug_4628663 Units=km Length=0.16837033 bus1=410857_524_162535_683.2 bus2=410825_991_162516_99.2 switch=n enabled=y phases=1 Linecode=K_65_13.8KV_1

New Fuse.Fuse_ug_4628663 monitoredobj=Line.ug_4628663 enabled=y ratedcurrent=10000.0

New Line.ug_14148740 Units=km Length=0.516602484 bus1=411750_127_161752_207.1 bus2=411831_909_161765_651.1 switch=y enabled=y phases=1 Linecode=SWT_TERMINATOR_1

New Line.ug_4655009_1 Units=km Length=0.313868084 bus1=410769_701_162835_522.3 bus2=410769_701_162835_522_sec_0.3 switch=y enabled=y phases=1 Linecode=SWT_TERMINATOR_1

New Line.ug_10199818 Units=km Length=0.01 bus1=412444_68_162348_748.1.2.3 bus2=TIEPOINT_10173442.1.2.3 switch=n enabled=y phases=3 Linecode=3P_UG_Code10

New Line.ug_10200253-1 Units=km Length=0.008348061 bus1=31213302047_LEG1.1.2.3 bus2=PROTDEV_10173622.1.2.3 switch=y enabled=y phases=3 Linecode=12917_3

New Line.ug_40436776_1 Units=km Length=0.780819297 bus1=411837_195_161642_878.1 bus2=411837_195_161642_878_sec_0.1 switch=y enabled=y phases=1 Linecode=SWT_TERMINATOR_1

New Line.ug_4641391 Units=km Length=1.0300005349999999 bus1=31214102007.1 bus2=410757_317_162659_77.1 switch=n enabled=y phases=1 Linecode=K_80_13.8KV_1

New Fuse.Fuse_ug_4641391 monitoredobj=Line.ug_4641391 enabled=y ratedcurrent=10000.0

New Line.ug_9577952 Units=km Length=0.560887003 bus1=412234_431_162047_683.3 bus2=412122_045_162144_758.3 switch=y enabled=y phases=1 Linecode=SWT_TERMINATOR_1

New Line.ug_4638575 Units=km Length=0.524729659 bus1=410591_395_162725_932.3 bus2=31215202015.3 switch=y enabled=y phases=1 Linecode=SWT_TERMINATOR_1

New Line.ug_4628697_1 Units=km Length=0.52341441 bus1=410976_642_163177_84.3 bus2=410976_642_163177_84_sec_0.3 switch=y enabled=y phases=1 Linecode=SWT_TERMINATOR_1

New Line.ug_10200243-2 Units=km Length=0.001473671 bus1=412536_51_162183_261.1.2.3 bus2=PROTDEV_10174527.1.2.3 switch=n enabled=y phases=3 Linecode=3P_UG_Code10

New Line.ug_14162862_1 Units=km Length=0.9515531509999999 bus1=411174_589_162288_899.2 bus2=411174_589_162288_899_sec_0.2 switch=y enabled=n phases=1 Linecode=SWT_TERMINATOR_1

New Line.ug_9588849 Units=km Length=0.053233243 bus1=31213302072.1.2.3 bus2=31213302020.1.2.3 switch=n enabled=y phases=3 Linecode=3P_UG_Code9

New Line.ug_9545622_1 Units=km Length=0.281166771 bus1=412385_711_161466_875.1 bus2=412385_711_161466_875_sec_0.1 switch=y enabled=y phases=1 Linecode=SWT_TERMINATOR_1

New Line.ug_10199803-1_1 Units=km Length=0.008334902 bus1=PROTDEV_10173432.1.2.3 bus2=PROTDEV_10173432_sec_0.1.2.3 switch=y enabled=y phases=3 Linecode=12917_3

New Line.ug_9546608-1_1 Units=km Length=1.4490427790000002 bus1=411965_523_161755_861.3 bus2=411965_523_161755_861_sec_0.3 switch=y enabled=y phases=1 Linecode=SWT_TERMINATOR_1

New Line.ug_9562373-1 Units=km Length=1.030863334 bus1=31214402001.3 bus2=411996_666_161861_038.3 switch=y enabled=y phases=1 Linecode=SWT_TERMINATOR_1

New Line.ug_41763867 Units=km Length=0.010958816000000001 bus1=31314202047.1.3 bus2=31314202049.1.3 switch=n enabled=y phases=2 Linecode=XL_80_13.8KV_2

New Fuse.Fuse_ug_41763867 monitoredobj=Line.ug_41763867 enabled=y ratedcurrent=40000.0

New Line.ug_9579345 Units=km Length=0.276408398 bus1=31213302044.1.2.3 bus2=31313102018_LEG2.1.2.3 switch=n enabled=y phases=3 Linecode=3P_UG_Code9

New Line.ug_10199858-1_1 Units=km Length=0.008231529 bus1=31213302017_LEG1.1.2.3 bus2=31213302017_LEG1_sec_0.1.2.3 switch=y enabled=y phases=3 Linecode=12917_3

New Line.ug_4628837 Units=km Length=0.223587465 bus1=410515_508_162771_235.3 bus2=410475_444_162730_44.3 switch=n enabled=y phases=1 Linecode=K_80_13.8KV_1

New Fuse.Fuse_ug_4628837 monitoredobj=Line.ug_4628837 enabled=y ratedcurrent=10000.0

New Line.ug_9578286 Units=km Length=0.544011763 bus1=31213302017_LEG3.1.2.3 bus2=31213302051.1.2.3 switch=n enabled=y phases=3 Linecode=3P_UG_Code11

New Line.ug_14164873 Units=km Length=0.481240111 bus1=31214402506.1.2.3 bus2=31214402007.1.2.3 switch=n enabled=y phases=3 Linecode=KL_25_13.8KV_3

New Fuse.Fuse_ug_14164873 monitoredobj=Line.ug_14164873 enabled=y ratedcurrent=40000.0

New Line.ug_4628821_1 Units=km Length=0.348878453 bus1=411458_886_162588_377.1 bus2=411458_886_162588_377_sec_0.1 switch=y enabled=y phases=1 Linecode=SWT_TERMINATOR_1

New Line.ug_4628841 Units=km Length=0.182129776 bus1=31215202015.3 bus2=410466_461_162658_713.3 switch=y enabled=y phases=1 Linecode=SWT_TERMINATOR_1

New Line.ug_14162854_1 Units=km Length=0.394015383 bus1=411261_327_162219_527.2 bus2=411261_327_162219_527_sec_0.2 switch=y enabled=y phases=1 Linecode=SWT_TERMINATOR_1

New Line.ug_5056994 Units=km Length=0.01 bus1=410879_192_163125_529.3 bus2=31214102526_LEG3.3 switch=y enabled=y phases=1 Linecode=12447_1

New Line.ug_9577748 Units=km Length=1.166269299 bus1=31213302020.1.2.3 bus2=31213302018_LEG1.1.2.3 switch=n enabled=y phases=3 Linecode=3P_UG_Code9

New Line.ug_9578537 Units=km Length=0.41381969199999996 bus1=31213302047_LEG3.1.2.3 bus2=31213302063.1.2.3 switch=n enabled=y phases=3 Linecode=3P_UG_Code9

New Line.ug_10200648-2 Units=km Length=0.00838046 bus1=412658_446_162064_56.1.2.3 bus2=PROTDEV_10173792.1.2.3 switch=y enabled=y phases=3 Linecode=12B05_3

New Line.ug_4628706 Units=km Length=0.6261833010000001 bus1=410957_666_163208_121.3 bus2=31214102526_LEG2.3 switch=y enabled=y phases=1 Linecode=SWT_TERMINATOR_1

New Line.ug_10200128_1 Units=km Length=0.01 bus1=31313102018_LEG2.1.2.3 bus2=31313102018_LEG2_sec_0.1.2.3 switch=y enabled=y phases=3 Linecode=12917_3

New Line.ug_10199823-1 Units=km Length=0.001665131 bus1=412444_68_162348_748.1.2.3 bus2=PROTDEV_10174382.1.2.3 switch=n enabled=y phases=3 Linecode=EF40P_140_13.8KV_3

New Fuse.Fuse_ug_10199823-1 monitoredobj=Line.ug_10199823-1 enabled=y ratedcurrent=40000.0

New Line.ug_4628818_1 Units=km Length=0.26412724600000004 bus1=411422_864_162566_122.1 bus2=411422_864_162566_122_sec_0.1 switch=y enabled=y phases=1 Linecode=SWT_TERMINATOR_1

New Line.ug_14162797_1 Units=km Length=0.248340851 bus1=410953_175_162333_105.2 bus2=410953_175_162333_105_sec_0.2 switch=y enabled=n phases=1 Linecode=SWT_TERMINATOR_1

New Line.ug_14162919_1 Units=km Length=0.420153124 bus1=411258_485_162453_873.3 bus2=411258_485_162453_873_sec_0.3 switch=y enabled=y phases=1 Linecode=SWT_TERMINATOR_1

New Line.ug_9577773 Units=km Length=0.546170126 bus1=412315_099_162273_61.1.2.3 bus2=31213302016_LEG3.1.2.3 switch=y enabled=y phases=3 Linecode=SWT_TERMINATOR_3

New Line.ug_10200248-1 Units=km Length=0.008150453 bus1=PROTDEV_10173617.1.2.3 bus2=31213302047_LEG2.1.2.3 switch=n enabled=y phases=3 Linecode=3P_UG_Code10

New Line.ug_4638582 Units=km Length=0.5278830090000001 bus1=31215202014.3 bus2=410591_395_162725_932.3 switch=y enabled=y phases=1 Linecode=SWT_TERMINATOR_1

New Line.ug_10199843 Units=km Length=0.01 bus1=412451_347_162342_986.1.2.3 bus2=412449_962_162344_094.1.2.3 switch=n enabled=y phases=3 Linecode=3P_UG_Code10

New Line.ug_14148769 Units=km Length=0.27356897900000005 bus1=411205_161697_018.1 bus2=411224_196_161758_546.1 switch=n enabled=y phases=1 Linecode=K_20_13.8KV_1

New Fuse.Fuse_ug_14148769 monitoredobj=Line.ug_14148769 enabled=y ratedcurrent=10000.0

New Line.ug_9546571_1 Units=km Length=0.311001552 bus1=412070_504_161639_79.1 bus2=412070_504_161639_79_sec_0.1 switch=y enabled=y phases=1 Linecode=SWT_TERMINATOR_1

New Line.ug_14162900_1 Units=km Length=0.569125714 bus1=411417_873_162071_549.3 bus2=411417_873_162071_549_sec_0.3 switch=y enabled=y phases=1 Linecode=SWT_TERMINATOR_1

New Line.ug_10200663-1 Units=km Length=0.008379626 bus1=PROTDEV_10173802.1.2.3 bus2=31213302066_LEG2.1.2.3 switch=n enabled=y phases=3 Linecode=3P_UG_Code10

New Line.ug_24896390 Units=km Length=0.004985374 bus1=31214102526_LEG3.3 bus2=410877_64_163122_64.3 switch=n enabled=y phases=1 Linecode=1P_UG_Code12

New Line.ug_4628792_1 Units=km Length=0.382508487 bus1=411306_402_162684_295.1 bus2=411306_402_162684_295_sec_0.1 switch=y enabled=y phases=1 Linecode=SWT_TERMINATOR_1

New Line.ug_39015455 Units=km Length=0.144265572 bus1=31215202102.3 bus2=410582_307_163055_186.3 switch=n enabled=y phases=1 Linecode=K_15_13.8KV_1

New Fuse.Fuse_ug_39015455 monitoredobj=Line.ug_39015455 enabled=y ratedcurrent=10000.0

New Line.ug_4628782_1 Units=km Length=0.488842066 bus1=411361_869_162593_01.1 bus2=411361_869_162593_01_sec_0.1 switch=y enabled=y phases=1 Linecode=SWT_TERMINATOR_1

New Line.ug_10199833-1 Units=km Length=0.008441591000000002 bus1=31213302016_LEG1.1.2.3 bus2=PROTDEV_10173447.1.2.3 switch=y enabled=y phases=3 Linecode=12917_3

New Line.ug_10200233-1 Units=km Length=0.008269177 bus1=PROTDEV_10174522.1.2.3 bus2=412534_003_162182_813.1.2.3 switch=n enabled=y phases=3 Linecode=3P_UG_Code10

New Line.ug_10199788-2 Units=km Length=0.008331769 bus1=PROTDEV_10174367.1.2.3 bus2=31213302018_LEG3.1.2.3 switch=n enabled=y phases=3 Linecode=QG12_80_13.8KV_3

New Fuse.Fuse_ug_10199788-2 monitoredobj=Line.ug_10199788-2 enabled=y ratedcurrent=40000.0

New Line.ug_4640446 Units=km Length=0.4602724 bus1=4932737.1.2.3 bus2=411070_585_163757_353.1.2.3 switch=n enabled=y phases=3 Linecode=3P_UG_Code13

New Line.ug_4640436 Units=km Length=0.708607831 bus1=410869_983_163785_715.1.2.3 bus2=410909_457_163621_802.1.2.3 switch=n enabled=y phases=3 Linecode=3P_UG_Code13

New Line.ug_9577763 Units=km Length=0.031588889 bus1=31213302018_LEG4-1.1.2.3 bus2=412463_119_162334_567.1.2.3 switch=y enabled=y phases=3 Linecode=SWT_TERMINATOR_3

New Line.ug_9578355 Units=km Length=0.021989650000000003 bus1=31213302047_LEG2.1.2.3 bus2=31213302046_LEG1.1.2.3 switch=y enabled=y phases=3 Linecode=12917_3

New Line.ug_9578375 Units=km Length=0.173530353 bus1=31213302060.1.2.3 bus2=31213302048_LEG1.1.2.3 switch=n enabled=y phases=3 Linecode=3P_UG_Code9

New Line.ug_9579895 Units=km Length=0.15412037900000003 bus1=31213302066_LEG3.1.2.3 bus2=412649_636_162112_504.1.2.3 switch=y enabled=y phases=3 Linecode=12B05_3

New Line.ug_4628668_1 Units=km Length=0.199171545 bus1=410825_991_162516_99.2 bus2=410825_991_162516_99_sec_0.2 switch=y enabled=y phases=1 Linecode=SWT_TERMINATOR_1

New Line.ug_10199813-2 Units=km Length=0.008164994 bus1=31213302016_LEG3.1.2.3 bus2=PROTDEV_10174377.1.2.3 switch=n enabled=y phases=3 Linecode=QG12_125_13.8KV_3

New Fuse.Fuse_ug_10199813-2 monitoredobj=Line.ug_10199813-2 enabled=y ratedcurrent=40000.0

New Line.ug_10200273-2 Units=km Length=0.0016500360000000001 bus1=412538_407_162186_15.1.2.3 bus2=PROTDEV_10173627.1.2.3 switch=y enabled=y phases=3 Linecode=12917_3

New Line.ug_10199853-1 Units=km Length=0.008381454 bus1=PROTDEV_10173452.1.2.3 bus2=31213302017_LEG2.1.2.3 switch=y enabled=y phases=3 Linecode=12917_3

New Line.ug_14162848_1 Units=km Length=0.213776132 bus1=411216_239_161942_484.2 bus2=411216_239_161942_484_sec_0.2 switch=y enabled=y phases=1 Linecode=SWT_TERMINATOR_1

New Line.ug_9577758 Units=km Length=0.038704332 bus1=31213302018_LEG2.1.2.3 bus2=31213302017_LEG1.1.2.3 switch=n enabled=y phases=3 Linecode=3P_UG_Code9

New Line.ug_9577778 Units=km Length=0.5353532719999999 bus1=31213302052.1.2.3 bus2=412445_975_162350_082.1.2.3 switch=n enabled=y phases=3 Linecode=3P_UG_Code11

New Line.ug_9545648_1 Units=km Length=0.343951189 bus1=412353_967_161582_279.2 bus2=412353_967_161582_279_sec_0.2 switch=y enabled=y phases=1 Linecode=SWT_TERMINATOR_1

New Line.ug_9588598 Units=km Length=0.558788312 bus1=412649_636_162112_504.1.2.3 bus2=31213302074.1.2.3 switch=n enabled=y phases=3 Linecode=3P_UG_Code9

New Line.ug_9562344 Units=km Length=2.9930312829999997 bus1=31214402001.1 bus2=412422_247_161494_02.1 switch=y enabled=y phases=1 Linecode=SWT_TERMINATOR_1

New Line.ug_10200658-1 Units=km Length=0.001650978 bus1=PROTDEV_10173797.1.2.3 bus2=31213302066_LEG4.1.2.3 switch=y enabled=y phases=3 Linecode=12B05_3

New Line.ug_4656940 Units=km Length=0.511029872 bus1=31214102014.1 bus2=411284_979_162972_567.1 switch=y enabled=y phases=1 Linecode=SWT_TERMINATOR_1

New Line.ug_10200268-2 Units=km Length=0.001779777 bus1=412539_529_162187_595.1.2.3 bus2=PROTDEV_10174537.1.2.3 switch=n enabled=y phases=3 Linecode=QG12_80_13.8KV_3

New Fuse.Fuse_ug_10200268-2 monitoredobj=Line.ug_10200268-2 enabled=y ratedcurrent=40000.0

New Line.ug_10200668-1 Units=km Length=0.008338278000000001 bus1=31213302066_LEG1.1.2.3 bus2=PROTDEV_10173807.1.2.3 switch=y enabled=y phases=3 Linecode=12B05_3

New Line.ug_40436745_1 Units=km Length=0.46140520500000004 bus1=411849_391_161525_777.1 bus2=411849_391_161525_777_sec_0.1 switch=y enabled=n phases=1 Linecode=SWT_TERMINATOR_1

New Line.ug_4628848 Units=km Length=0.01399147 bus1=410519_935_162628_033.3 bus2=31215202039.3 switch=y enabled=y phases=1 Linecode=SWT_TERMINATOR_1

New Line.ug_9588518-1 Units=km Length=0.836873934 bus1=31213302066_LEG4.1.2.3 bus2=31213302078.1.2.3 switch=n enabled=y phases=3 Linecode=3P_UG_Code9

New Line.ug_14162890_1 Units=km Length=0.377315609 bus1=411482_935_162045_111.3 bus2=411482_935_162045_111_sec_0.3 switch=y enabled=y phases=1 Linecode=SWT_TERMINATOR_1

New Line.ug_4655844 Units=km Length=0.221807179 bus1=411389_595_162732_483.1 bus2=31214102012.1 switch=y enabled=y phases=1 Linecode=SWT_TERMINATOR_1

New Line.ug_9578365 Units=km Length=0.133325454 bus1=31213302048_LEG4.1.2.3 bus2=31213302055.1.2.3 switch=y enabled=y phases=3 Linecode=12917_3

New Line.ug_14162915_1 Units=km Length=0.296457847 bus1=411463_636_162294_864.3 bus2=411463_636_162294_864_sec_0.3 switch=y enabled=n phases=1 Linecode=SWT_TERMINATOR_1

New Line.ug_10200228-1_1 Units=km Length=0.008390463 bus1=31213302046_LEG1.1.2.3 bus2=31213302046_LEG1_sec_0.1.2.3 switch=y enabled=y phases=3 Linecode=12917_3

New Line.ug_41763846 Units=km Length=0.271181328 bus1=31314202048.1 bus2=411797_342_161520_037.1 switch=y enabled=y phases=1 Linecode=SWT_TERMINATOR_1

New Line.ug_4628656 Units=km Length=0.085270872 bus1=410899_696_163115_566.2 bus2=410880_833_163126_863.2 switch=y enabled=y phases=1 Linecode=SWT_TERMINATOR_1

New Line.ug_4656934 Units=km Length=0.70054744 bus1=411229_154_163014_672.1 bus2=31214102013.1 switch=y enabled=y phases=1 Linecode=SWT_TERMINATOR_1

New Line.ug_5057006 Units=km Length=0.01 bus1=410879_97_163125_197.3 bus2=410880_833_163126_863.3 switch=n enabled=y phases=1 Linecode=1P_UG_Code14

New Line.ug_10200653 Units=km Length=0.01 bus1=412660_087_162065_451.1.2.3 bus2=412658_446_162064_56.1.2.3 switch=n enabled=y phases=3 Linecode=3P_UG_Code10

New Line.ug_5056998-2 Units=km Length=0.002773402 bus1=410879_192_163125_529.3 bus2=410879_97_163125_197.3 switch=n enabled=y phases=1 Linecode=1P_UG_Code14

New Line.ug_10199808-2 Units=km Length=0.0017025 bus1=PROTDEV_10173437.1.2.3 bus2=412458_445_162338_001.1.2.3 switch=n enabled=y phases=3 Linecode=3P_UG_Code10

New Line.ug_40436738_1 Units=km Length=0.7035450590000001 bus1=411755_957_161553_613.3 bus2=411755_957_161553_613_sec_0.3 switch=y enabled=y phases=1 Linecode=SWT_TERMINATOR_1

New Line.ug_4641382 Units=km Length=0.532668613 bus1=31214102008.1 bus2=410875_966_162768_504.1 switch=n enabled=y phases=1 Linecode=K_80_13.8KV_1

New Fuse.Fuse_ug_4641382 monitoredobj=Line.ug_4641382 enabled=y ratedcurrent=10000.0

New Line.ug_9578547 Units=km Length=0.519185925 bus1=412512_79_162037_018.1.2.3 bus2=31213302046_LEG3.1.2.3 switch=y enabled=y phases=3 Linecode=SWT_TERMINATOR_3

New Line.ug_10200263 Units=km Length=0.01 bus1=412539_529_162187_595.1.2.3 bus2=412538_407_162186_15.1.2.3 switch=n enabled=y phases=3 Linecode=3P_UG_Code10

New Line.ug_4640337 Units=km Length=0.06016388 bus1=410909_457_163621_802.1.2.3 bus2=31114302550.1.2.3 switch=n enabled=y phases=3 Linecode=3P_UG_Code13

New Line.ug_40436728-1_1 Units=km Length=0.265299766 bus1=411885_268_161589_886.3 bus2=411885_268_161589_886_sec_0.3 switch=y enabled=n phases=1 Linecode=SWT_TERMINATOR_1

New Line.ug_10200218-2 Units=km Length=0.0016680870000000002 bus1=412533_404_162178_593.1.2.3 bus2=PROTDEV_10174517.1.2.3 switch=n enabled=y phases=3 Linecode=QG12_125_13.8KV_3

New Fuse.Fuse_ug_10200218-2 monitoredobj=Line.ug_10200218-2 enabled=y ratedcurrent=40000.0

New Line.ug_9578552 Units=km Length=0.517824659 bus1=412534_003_162182_813.1.2.3 bus2=412512_79_162037_018.1.2.3 switch=y enabled=y phases=3 Linecode=SWT_TERMINATOR_3

New Line.ug_10200208-2 Units=km Length=0.008350168 bus1=412530_811_162178_145.1.2.3 bus2=PROTDEV_10174512.1.2.3 switch=n enabled=y phases=3 Linecode=3P_UG_Code10

New Line.ug_14165037 Units=km Length=0.035353075 bus1=411381_158_161448_156.1 bus2=411374_59_161445_038.1 switch=y enabled=y phases=1 Linecode=SWT_TERMINATOR_1

New Line.ug_5056998-4 Units=km Length=0.0022655509999999998 bus1=410878_413_163125_972.3 bus2=410877_807_163126_304.3 switch=n enabled=y phases=1 Linecode=1P_UG_Code14

New Line.ug_10200253-2 Units=km Length=0.001651939 bus1=PROTDEV_10173622.1.2.3 bus2=412536_51_162183_261.1.2.3 switch=y enabled=y phases=3 Linecode=12917_3

New Line.ug_14162936_1 Units=km Length=0.433757543 bus1=411487_631_162442_769.3 bus2=411487_631_162442_769_sec_0.3 switch=y enabled=y phases=1 Linecode=SWT_TERMINATOR_1

New Line.ug_9577949 Units=km Length=0.059359631 bus1=31213302039.3 bus2=412234_431_162047_683.3 switch=n enabled=y phases=1 Linecode=K_25_13.8KV_1

New Fuse.Fuse_ug_9577949 monitoredobj=Line.ug_9577949 enabled=y ratedcurrent=10000.0

New Line.ug_14148820 Units=km Length=0.15023022800000002 bus1=31314102505.1 bus2=411341_306_161679_339.1 switch=n enabled=y phases=1 Linecode=K_15_13.8KV_1

New Fuse.Fuse_ug_14148820 monitoredobj=Line.ug_14148820 enabled=y ratedcurrent=10000.0

New Line.ug_14162818_1 Units=km Length=0.46323115000000004 bus1=411114_436_162453_336.2 bus2=411114_436_162453_336_sec_0.2 switch=y enabled=y phases=1 Linecode=SWT_TERMINATOR_1

New Line.ug_10200278-2 Units=km Length=0.001524334 bus1=PROTDEV_10173632.1.2.3 bus2=412539_529_162187_595.1.2.3 switch=n enabled=y phases=3 Linecode=3P_UG_Code10

New Line.ug_4628788 Units=km Length=0.23618755 bus1=411040_797_162556_919.2 bus2=411007_328_162500_588.2 switch=n enabled=y phases=1 Linecode=K_65_13.8KV_1

New Fuse.Fuse_ug_4628788 monitoredobj=Line.ug_4628788 enabled=y ratedcurrent=10000.0

New Line.ug_10200238 Units=km Length=0.01 bus1=412536_51_162183_261.1.2.3 bus2=412535_474_162181_816.1.2.3 switch=n enabled=y phases=3 Linecode=3P_UG_Code10

New Line.ug_9546582_1 Units=km Length=0.48981183 bus1=412172_012_161535_593.2 bus2=412172_012_161535_593_sec_0.2 switch=y enabled=y phases=1 Linecode=SWT_TERMINATOR_1

New Line.ug_14148781_1 Units=km Length=0.45721903700000005 bus1=411804_032_161729_974.3 bus2=411804_032_161729_974_sec_0.3 switch=y enabled=y phases=1 Linecode=SWT_TERMINATOR_1

New Line.ug_10200243-1 Units=km Length=0.008526329000000001 bus1=PROTDEV_10174527.1.2.3 bus2=31213302047_LEG3.1.2.3 switch=n enabled=y phases=3 Linecode=QG12_125_13.8KV_3

New Fuse.Fuse_ug_10200243-1 monitoredobj=Line.ug_10200243-1 enabled=y ratedcurrent=40000.0

New Line.ug_14148778 Units=km Length=0.334589318 bus1=411750_127_161752_207.3 bus2=411804_032_161729_974.3 switch=y enabled=y phases=1 Linecode=SWT_TERMINATOR_1

New Line.ug_14164881 Units=km Length=0.105944193 bus1=31214402007.1 bus2=411727_29_162340_1.1 switch=y enabled=y phases=1 Linecode=SWT_TERMINATOR_1

New Line.ug_4628844_1 Units=km Length=0.361147649 bus1=410466_461_162658_713.3 bus2=410466_461_162658_713_sec_0.3 switch=y enabled=y phases=1 Linecode=SWT_TERMINATOR_1

New Line.ug_4655850_1 Units=km Length=0.404478359 bus1=411326_526_162819_871.1 bus2=411326_526_162819_871_sec_0.1 switch=y enabled=y phases=1 Linecode=SWT_TERMINATOR_1

New Line.ug_14162822_1 Units=km Length=0.401180617 bus1=411216_396_162379_767.2 bus2=411216_396_162379_767_sec_0.2 switch=y enabled=y phases=1 Linecode=SWT_TERMINATOR_1

New Line.ug_9578301 Units=km Length=0.06411235100000001 bus1=412308_618_162270_936.1.2.3 bus2=31213302052.1.2.3 switch=y enabled=y phases=3 Linecode=SWT_TERMINATOR_3

New Line.ug_9579885 Units=km Length=0.14399368899999998 bus1=31213302074.1.2.3 bus2=31213302060.1.2.3 switch=n enabled=y phases=3 Linecode=3P_UG_Code9

New Line.ug_14162911_1 Units=km Length=0.33383782900000003 bus1=411471_209_162200_846.3 bus2=411471_209_162200_846_sec_0.3 switch=y enabled=y phases=1 Linecode=SWT_TERMINATOR_1

New Line.ug_10199798-1 Units=km Length=0.00166895 bus1=412458_445_162338_001.1.2.3 bus2=PROTDEV_10174372.1.2.3 switch=n enabled=y phases=3 Linecode=QG12_80_13.8KV_3

New Fuse.Fuse_ug_10199798-1 monitoredobj=Line.ug_10199798-1 enabled=y ratedcurrent=40000.0

New Line.ug_10199848-2 Units=km Length=0.008280348 bus1=PROTDEV_10174392.1.2.3 bus2=412452_555_162344_32.1.2.3 switch=n enabled=y phases=3 Linecode=EF40P_140_13.8KV_3

New Fuse.Fuse_ug_10199848-2 monitoredobj=Line.ug_10199848-2 enabled=y ratedcurrent=40000.0

New Line.ug_4638579 Units=km Length=0.092051696 bus1=410475_444_162730_44.3 bus2=31215202014.3 switch=y enabled=y phases=1 Linecode=SWT_TERMINATOR_1

New Line.ug_10200258-2 Units=km Length=0.001668005 bus1=412538_407_162186_15.1.2.3 bus2=PROTDEV_10174532.1.2.3 switch=n enabled=y phases=3 Linecode=QG12_80_13.8KV_3

New Fuse.Fuse_ug_10200258-2 monitoredobj=Line.ug_10200258-2 enabled=y ratedcurrent=40000.0

New Line.ug_5057002 Units=km Length=0.01 bus1=31214102526_LEG2.3 bus2=410878_413_163125_972.3 switch=y enabled=y phases=1 Linecode=12447_1

New Line.ug_40436710 Units=km Length=1.2657009760000002 bus1=31314202048.3 bus2=411912_691_161410_418.3 switch=y enabled=y phases=1 Linecode=SWT_TERMINATOR_1

New Line.ug_10199838-1 Units=km Length=0.001828563 bus1=412449_962_162344_094.1.2.3 bus2=PROTDEV_10174387.1.2.3 switch=n enabled=y phases=3 Linecode=3P_UG_Code10

New Line.ug_4638490 Units=km Length=0.27653913 bus1=31214102001.3 bus2=410732_71_162889_202.3 switch=n enabled=y phases=1 Linecode=KL_40_13.8KV_1

New Fuse.Fuse_ug_4638490 monitoredobj=Line.ug_4638490 enabled=y ratedcurrent=40000.0

New Line.ug_9545654-1_1 Units=km Length=1.3868847690000001 bus1=412356_217_161636_457.2 bus2=412356_217_161636_457_sec_0.2 switch=y enabled=y phases=1 Linecode=SWT_TERMINATOR_1

New Line.ug_4628660_1 Units=km Length=0.41050753900000003 bus1=411007_328_162500_588.2 bus2=411007_328_162500_588_sec_0.2 switch=y enabled=y phases=1 Linecode=SWT_TERMINATOR_1

New Line.ug_28873149 Units=km Length=0.26071367 bus1=31314202042.3 bus2=411610_761_161440_497.3 switch=n enabled=y phases=1 Linecode=K_80_13.8KV_1

New Fuse.Fuse_ug_28873149 monitoredobj=Line.ug_28873149 enabled=y ratedcurrent=10000.0

New Line.ug_4628776 Units=km Length=0.242674834 bus1=411307_518_162629_345.1 bus2=411361_869_162593_01.1 switch=y enabled=y phases=1 Linecode=SWT_TERMINATOR_1

New Line.ug_10199823-2 Units=km Length=0.008334869 bus1=PROTDEV_10174382.1.2.3 bus2=412445_975_162350_082.1.2.3 switch=n enabled=y phases=3 Linecode=3P_UG_Code10

New Line.ug_14148743 Units=km Length=0.39310726 bus1=31314202002.2 bus2=411628_362_161526_336.2 switch=n enabled=y phases=1 Linecode=K_25_13.8KV_1

New Fuse.Fuse_ug_14148743 monitoredobj=Line.ug_14148743 enabled=y ratedcurrent=10000.0

New Line.ug_14162858_1 Units=km Length=0.454489125 bus1=411351_296_162308_911.2 bus2=411351_296_162308_911_sec_0.2 switch=y enabled=y phases=1 Linecode=SWT_TERMINATOR_1

New Line.ug_40436888 Units=km Length=0.010369334000000001 bus1=31314202002.1.3 bus2=31314202048.1.3 switch=n enabled=y phases=2 Linecode=XL_80_13.8KV_2

New Fuse.Fuse_ug_40436888 monitoredobj=Line.ug_40436888 enabled=y ratedcurrent=40000.0

New Line.ug_4641388_1 Units=km Length=0.306280243 bus1=410757_317_162659_77.1 bus2=410757_317_162659_77_sec_0.1 switch=y enabled=y phases=1 Linecode=SWT_TERMINATOR_1

New Line.ug_9577768 Units=km Length=0.0033241440000000002 bus1=31213302018_LEG3.1.2.3 bus2=31213302032.1.2.3 switch=n enabled=y phases=3 Linecode=3P_UG_Code11

New Line.ug_9588503 Units=km Length=0.010021368000000001 bus1=31213302066_LEG2.1.2.3 bus2=31213302072.1.2.3 switch=y enabled=y phases=3 Linecode=12B05_3

New Line.ug_9545619_1 Units=km Length=0.304789081 bus1=412422_247_161494_02.1 bus2=412422_247_161494_02_sec_0.1 switch=y enabled=y phases=1 Linecode=SWT_TERMINATOR_1

New Line.ug_10200248-2 Units=km Length=0.001849547 bus1=412535_474_162181_816.1.2.3 bus2=PROTDEV_10173617.1.2.3 switch=y enabled=y phases=3 Linecode=12917_3

New Line.ug_4655005 Units=km Length=0.441045204 bus1=31214102513.3 bus2=410769_701_162835_522.3 switch=n enabled=y phases=1 Linecode=KL_40_13.8KV_1

New Fuse.Fuse_ug_4655005 monitoredobj=Line.ug_4655005 enabled=y ratedcurrent=40000.0

New Line.ug_14162880 Units=km Length=0.43180069600000004 bus1=411569_181_162137_934.3 bus2=411492_778_162114_509.3 switch=y enabled=y phases=1 Linecode=SWT_TERMINATOR_1

New Line.ug_14162826 Units=km Length=1.078717869 bus1=411569_181_162137_934.2 bus2=411280_829_162125_749.2 switch=y enabled=y phases=1 Linecode=SWT_TERMINATOR_1

New Line.ug_10199803-2 Units=km Length=0.001665098 bus1=412457_146_162339_331.1.2.3 bus2=PROTDEV_10173432.1.2.3 switch=n enabled=y phases=3 Linecode=3P_UG_Code10

New Line.ug_14162866-1 Units=km Length=0.573212381 bus1=31214402001.2 bus2=411840_63_161889_444.2 switch=y enabled=y phases=1 Linecode=SWT_TERMINATOR_1

New Line.ug_4654925 Units=km Length=0.24829942700000002 bus1=411070_585_163757_353.1.2.3 bus2=411038_271_163806_487.1.2.3 switch=n enabled=y phases=3 Linecode=3P_UG_Code13

New Line.ug_9577965-1 Units=km Length=0.13474732700000003 bus1=31213302032.1 bus2=412468_057_162329_135.1 switch=y enabled=y phases=1 Linecode=SWT_TERMINATOR_1

New Line.ug_40436748 Units=km Length=0.44827258999999997 bus1=31314202049.1 bus2=411849_391_161525_777.1 switch=y enabled=y phases=1 Linecode=SWT_TERMINATOR_1

New Line.ug_4655859_1 Units=km Length=0.321048294 bus1=411404_897_162853_288.1 bus2=411404_897_162853_288_sec_0.1 switch=y enabled=y phases=1 Linecode=SWT_TERMINATOR_1

New Line.ug_9577753-1 Units=km Length=0.038599775 bus1=31213302017_LEG2.1.2.3 bus2=31213302016_LEG1.1.2.3 switch=n enabled=y phases=3 Linecode=3P_UG_Code9

New Line.ug_14162923_1 Units=km Length=0.471171078 bus1=411373_871_162424_398.3 bus2=411373_871_162424_398_sec_0.3 switch=y enabled=y phases=1 Linecode=SWT_TERMINATOR_1

New Line.ug_9578370 Units=km Length=0.035852363 bus1=31213302048_LEG3-1.1.2.3 bus2=412544_968_162193_044.1.2.3 switch=y enabled=y phases=3 Linecode=SWT_TERMINATOR_3

New Line.ug_9588513 Units=km Length=0.13012226100000002 bus1=31213302022.1.2.3 bus2=31213302071.1.2.3 switch=n enabled=y phases=3 Linecode=3P_UG_Code9

New Line.ug_4628653_1 Units=km Length=0.289713123 bus1=410934_341_163070_542.2 bus2=410934_341_163070_542_sec_0.2 switch=y enabled=y phases=1 Linecode=SWT_TERMINATOR_1

New Line.ug_10199858-2 Units=km Length=0.001768471 bus1=PROTDEV_10173457.1.2.3 bus2=412451_347_162342_986.1.2.3 switch=n enabled=y phases=3 Linecode=3P_UG_Code10

New Line.ug_4628688-1_1 Units=km Length=0.520329085 bus1=411197_38_162558_139.2 bus2=411197_38_162558_139_sec_0.2 switch=y enabled=y phases=1 Linecode=SWT_TERMINATOR_1

New Line.ug_4641385_1 Units=km Length=0.36120130699999997 bus1=410812_874_162687_933.1 bus2=410812_874_162687_933_sec_0.1 switch=y enabled=n phases=1 Linecode=SWT_TERMINATOR_1

New Line.ug_10200663-2 Units=km Length=0.001620374 bus1=412658_446_162064_56.1.2.3 bus2=PROTDEV_10173802.1.2.3 switch=y enabled=y phases=3 Linecode=12B05_3

New Line.ug_10199788-1 Units=km Length=0.001668232 bus1=412457_146_162339_331.1.2.3 bus2=PROTDEV_10174367.1.2.3 switch=n enabled=y phases=3 Linecode=3P_UG_Code10

New Line.ug_14162794_1 Units=km Length=0.266637482 bus1=410952_38_162406_928.2 bus2=410952_38_162406_928_sec_0.2 switch=y enabled=y phases=1 Linecode=SWT_TERMINATOR_1

New Line.ug_9562370_1 Units=km Length=0.24865261000000002 bus1=411911_425_161905_758.2 bus2=411911_425_161905_758_sec_0.2 switch=y enabled=y phases=1 Linecode=SWT_TERMINATOR_1

New Line.ug_4628671 Units=km Length=0.469880428 bus1=31214102517.2 bus2=411275_702_162809_807.2 switch=n enabled=y phases=1 Linecode=K_40_13.8KV_1

New Fuse.Fuse_ug_4628671 monitoredobj=Line.ug_4628671 enabled=y ratedcurrent=10000.0

New Line.ug_10200273-1 Units=km Length=0.008349964 bus1=PROTDEV_10173627.1.2.3 bus2=31213302048_LEG2.1.2.3 switch=n enabled=y phases=3 Linecode=3P_UG_Code10

New Line.ug_45774044_1 Units=km Length=0.286045908 bus1=411685_91_161555_618.2 bus2=411685_91_161555_618_sec_0.2 switch=y enabled=y phases=1 Linecode=SWT_TERMINATOR_1

New Line.ug_4628647 Units=km Length=0.328731907 bus1=410858_904_162915_685.2 bus2=410878_003_162984_318.2 switch=y enabled=y phases=1 Linecode=SWT_TERMINATOR_1

New Line.ug_4656937_1 Units=km Length=0.45175465400000003 bus1=411284_979_162972_567.1 bus2=411284_979_162972_567_sec_0.1 switch=y enabled=y phases=1 Linecode=SWT_TERMINATOR_1

New Line.ug_10199853-2 Units=km Length=0.001618547 bus1=412449_962_162344_094.1.2.3 bus2=PROTDEV_10173452.1.2.3 switch=y enabled=y phases=3 Linecode=12917_3

New Line.ug_5056998-1 Units=km Length=0.002022802 bus1=410879_97_163125_197.3 bus2=410880_49_163124_865.3 switch=n enabled=y phases=1 Linecode=1P_UG_Code14

New Line.ug_14162851_1 Units=km Length=1.042940007 bus1=411194_128_162168_143.2 bus2=411194_128_162168_143_sec_0.2 switch=y enabled=y phases=1 Linecode=SWT_TERMINATOR_1

New Line.ug_40436701_1 Units=km Length=0.6556052969999999 bus1=411912_691_161410_418.3 bus2=411912_691_161410_418_sec_0.3 switch=y enabled=y phases=1 Linecode=SWT_TERMINATOR_1

New Line.ug_14162807_1 Units=km Length=0.5395409330000001 bus1=410863_166_162394_26.2 bus2=410863_166_162394_26_sec_0.2 switch=y enabled=y phases=1 Linecode=SWT_TERMINATOR_1

New Line.ug_14162835_1 Units=km Length=0.507025056 bus1=411280_829_162125_749.2 bus2=411280_829_162125_749_sec_0.2 switch=y enabled=y phases=1 Linecode=SWT_TERMINATOR_1

New Line.ug_9588508 Units=km Length=0.010759256 bus1=31213302071.1.2.3 bus2=31213302066_LEG1.1.2.3 switch=n enabled=y phases=3 Linecode=3P_UG_Code9

New Line.ug_9545610_1 Units=km Length=1.747817474 bus1=412026_117_161600_756.1 bus2=412026_117_161600_756_sec_0.1 switch=y enabled=n phases=1 Linecode=SWT_TERMINATOR_1

New Line.ug_10200648-1 Units=km Length=0.001619541 bus1=PROTDEV_10173792.1.2.3 bus2=31213302066_LEG3.1.2.3 switch=n enabled=y phases=3 Linecode=3P_UG_Code10

New Line.ug_4628703_1 Units=km Length=0.503209691 bus1=410953_325_163283_937.3 bus2=410953_325_163283_937_sec_0.3 switch=y enabled=y phases=1 Linecode=SWT_TERMINATOR_1

New Line.ug_4628718 Units=km Length=0.67055803 bus1=31215202102.3 bus2=410703_692_163247_293.3 switch=n enabled=y phases=1 Linecode=K_15_13.8KV_1

New Fuse.Fuse_ug_4628718 monitoredobj=Line.ug_4628718 enabled=y ratedcurrent=10000.0

New Line.ug_10200213 Units=km Length=0.01 bus1=412533_404_162178_593.1.2.3 bus2=TIEPOINT_10173607.1.2.3 switch=n enabled=y phases=3 Linecode=3P_UG_Code10

New Line.ug_10200268-1 Units=km Length=0.008220223 bus1=PROTDEV_10174537.1.2.3 bus2=31213302048_LEG3.1.2.3 switch=n enabled=y phases=3 Linecode=3P_UG_Code10

New Line.ug_14148737_1 Units=km Length=0.426400614 bus1=411796_744_161456_87.1 bus2=411796_744_161456_87_sec_0.1 switch=y enabled=y phases=1 Linecode=SWT_TERMINATOR_1

New Line.ug_10200233-2 Units=km Length=0.001730824 bus1=412535_474_162181_816.1.2.3 bus2=PROTDEV_10174522.1.2.3 switch=n enabled=y phases=3 Linecode=QG12_125_13.8KV_3

New Fuse.Fuse_ug_10200233-2 monitoredobj=Line.ug_10200233-2 enabled=y ratedcurrent=40000.0

New Line.ug_4628815 Units=km Length=0.057350606 bus1=31214302501.1 bus2=411422_864_162566_122.1 switch=n enabled=y phases=1 Linecode=K_100_13.8KV_1

New Fuse.Fuse_ug_4628815 monitoredobj=Line.ug_4628815 enabled=y ratedcurrent=10000.0

New Line.ug_4655855 Units=km Length=0.424176172 bus1=31214102012.1 bus2=411326_526_162819_871.1 switch=y enabled=y phases=1 Linecode=SWT_TERMINATOR_1

New Line.ug_4655847 Units=km Length=0.013156703 bus1=411364_641_162889_643.1 bus2=31214102014.1 switch=y enabled=y phases=1 Linecode=SWT_TERMINATOR_1

New Line.ug_10200218-1 Units=km Length=0.008331913 bus1=31213302046_LEG3.1.2.3 bus2=PROTDEV_10174517.1.2.3 switch=y enabled=y phases=3 Linecode=12917_3

New Line.ug_10199813-1 Units=km Length=0.001835007 bus1=PROTDEV_10174377.1.2.3 bus2=TIEPOINT_10173442.1.2.3 switch=n enabled=y phases=3 Linecode=3P_UG_Code10

New Line.ug_4628684_1 Units=km Length=0.390408818 bus1=411266_214_162551_354.2 bus2=411266_214_162551_354_sec_0.2 switch=y enabled=y phases=1 Linecode=SWT_TERMINATOR_1

New Line.ug_14165030 Units=km Length=0.2173725 bus1=31314102004.1 bus2=411305_363_161538_412.1 switch=n enabled=y phases=1 Linecode=K_25_13.8KV_1

New Fuse.Fuse_ug_14165030 monitoredobj=Line.ug_14165030 enabled=y ratedcurrent=10000.0

New Line.ug_9546564_1 Units=km Length=1.676140736 bus1=411900_644_161772_748.1 bus2=411900_644_161772_748_sec_0.1 switch=y enabled=y phases=1 Linecode=SWT_TERMINATOR_1

New Line.ug_5056998-3 Units=km Length=0.0029382419999999998 bus1=410878_413_163125_972.3 bus2=410879_192_163125_529.3 switch=n enabled=y phases=1 Linecode=1P_UG_Code14

New Line.ug_9579523 Units=km Length=0.090700216 bus1=31213302063.1.2.3 bus2=412506_218_162037_341.1.2.3 switch=y enabled=y phases=3 Linecode=SWT_TERMINATOR_3

New Line.ug_9545651_1 Units=km Length=0.345106917 bus1=412294_131_161579_521.2 bus2=412294_131_161579_521_sec_0.2 switch=y enabled=y phases=1 Linecode=SWT_TERMINATOR_1

New Line.ug_4628752 Units=km Length=1.566694049 bus1=31114302551.1.2.3 bus2=31215202102.1.2.3 switch=y enabled=y phases=3 Linecode=11825_3

New Line.ug_10200668-2 Units=km Length=0.001661722 bus1=PROTDEV_10173807.1.2.3 bus2=412660_087_162065_451.1.2.3 switch=y enabled=y phases=3 Linecode=12B05_3

New Line.ug_10199833-2 Units=km Length=0.001558409 bus1=PROTDEV_10173447.1.2.3 bus2=412444_68_162348_748.1.2.3 switch=y enabled=y phases=3 Linecode=12917_3

New Line.ug_10199793 Units=km Length=0.01 bus1=412458_445_162338_001.1.2.3 bus2=412457_146_162339_331.1.2.3 switch=n enabled=y phases=3 Linecode=3P_UG_Code10

New Line.ug_4640441 Units=km Length=0.15909867 bus1=411038_271_163806_487.1.2.3 bus2=410994_672_163826_63.1.2.3 switch=n enabled=y phases=3 Linecode=3P_UG_Code13

New Line.ug_9577783 Units=km Length=0.583773592 bus1=412452_555_162344_32.1.2.3 bus2=412315_099_162273_61.1.2.3 switch=y enabled=y phases=3 Linecode=SWT_TERMINATOR_3

New Line.ug_14162814_1 Units=km Length=0.9922311730000001 bus1=411213_223_162483_005.2 bus2=411213_223_162483_005_sec_0.2 switch=y enabled=y phases=1 Linecode=SWT_TERMINATOR_1

New Line.ug_4628691-1 Units=km Length=1.029586847 bus1=410858_904_162915_685.3 bus2=410976_642_163177_84.3 switch=y enabled=y phases=1 Linecode=SWT_TERMINATOR_1

New Line.ug_10200228-2 Units=km Length=0.001609537 bus1=PROTDEV_10173612.1.2.3 bus2=412533_404_162178_593.1.2.3 switch=n enabled=y phases=3 Linecode=3P_UG_Code10

New Line.ug_10200258-1 Units=km Length=0.008331995 bus1=PROTDEV_10174532.1.2.3 bus2=31213302048_LEG4.1.2.3 switch=n enabled=y phases=3 Linecode=3P_UG_Code10

New Line.ug_4628675 Units=km Length=0.31915385900000004 bus1=411307_518_162629_345.2 bus2=411266_214_162551_354.2 switch=y enabled=y phases=1 Linecode=SWT_TERMINATOR_1

New Line.ug_40436690_1 Units=km Length=0.9995822010000001 bus1=411797_342_161520_037.1 bus2=411797_342_161520_037_sec_0.1 switch=y enabled=y phases=1 Linecode=SWT_TERMINATOR_1

New Line.ug_10199808-1_1 Units=km Length=0.0082975 bus1=31213302018_LEG1.1.2.3 bus2=31213302018_LEG1_sec_0.1.2.3 switch=y enabled=y phases=3 Linecode=12917_3

New Line.ug_4628828_1 Units=km Length=0.520098465 bus1=411479_261_162668_78.1 bus2=411479_261_162668_78_sec_0.1 switch=y enabled=y phases=1 Linecode=SWT_TERMINATOR_1

New Line.ug_9546621-1 Units=km Length=3.1409616390000004 bus1=411750_127_161752_207.2 bus2=412353_967_161582_279.2 switch=y enabled=y phases=1 Linecode=SWT_TERMINATOR_1

New Line.ug_14162803_1 Units=km Length=0.300906247 bus1=410814_995_162464_798.2 bus2=410814_995_162464_798_sec_0.2 switch=y enabled=y phases=1 Linecode=SWT_TERMINATOR_1

New Line.ug_9546585-1_1 Units=km Length=1.341049557 bus1=411935_434_161867_828.2 bus2=411935_434_161867_828_sec_0.2 switch=y enabled=y phases=1 Linecode=SWT_TERMINATOR_1

New Line.ug_4628650-1_1 Units=km Length=0.37266583200000003 bus1=410878_003_162984_318.2 bus2=410878_003_162984_318_sec_0.2 switch=y enabled=y phases=1 Linecode=SWT_TERMINATOR_1

New Line.ug_10200658-2 Units=km Length=0.008349023 bus1=412660_087_162065_451.1.2.3 bus2=PROTDEV_10173797.1.2.3 switch=y enabled=y phases=3 Linecode=12B05_3

New Line.ug_14148733 Units=km Length=0.282841948 bus1=31314202003.1 bus2=411796_744_161456_87.1 switch=n enabled=y phases=1 Linecode=K_30_13.8KV_1

New Fuse.Fuse_ug_14148733 monitoredobj=Line.ug_14148733 enabled=y ratedcurrent=10000.0

New Line.ug_4640357 Units=km Length=0.464399962 bus1=410994_672_163826_63.1.2.3 bus2=410869_983_163785_715.1.2.3 switch=n enabled=y phases=3 Linecode=3P_UG_Code13

...